12
step: 0, t: 0.00 fs
 C -0.88429826 1.09969785 -0.27140423 
 N 0.45548139 1.24984208 -0.35787612 
 B 1.43396548 0.23401719 -0.11189631 
 C 0.88440615 -1.09920799 0.27244692 
 N -0.45544288 -1.24969403 0.35811154 
 B -1.43397924 -0.23382747 0.11213388 
 H -1.48347656 1.98493948 -0.49429780 
 H 1.48291666 -1.98496758 0.49511056 
 F -2.73690809 -0.55886686 0.24500797 
 F 2.73688233 0.55834452 -0.24597437 
 H -0.79669054 -2.17214290 0.62245644 
 H 0.79606320 2.17208703 -0.62329837 